<?xml version="1.0" encoding="UTF-8"?>

<!-- generated on 2022-12-12 01:12:07 by Eclipse SUMO netedit Version 1.9.2
<configuration xmlns:xsi="http://www.w3.org/2001/XMLSchema-instance" xsi:noNamespaceSchemaLocation="http://sumo.dlr.de/xsd/netconvertConfiguration.xsd">

    <input>
        <sumo-net-file value="C:\Users\Pc\Veins\veins-veins-5.1\cbtc-simulations\cbtc-sim1\cbtc-sim1.net.xml"/>
    </input>

    <output>
        <output-file value="C:\Users\Pc\Veins\veins-veins-5.1\cbtc-simulations\cbtc-sim1\cbtc-sim1.net.xml"/>
    </output>

    <processing>
        <geometry.min-radius.fix.railways value="false"/>
        <geometry.max-grade.fix value="false"/>
        <offset.disable-normalization value="true"/>
        <lefthand value="false"/>
    </processing>

    <junctions>
        <no-internal-links value="true"/>
        <no-turnarounds value="true"/>
        <junctions.corner-detail value="5"/>
        <junctions.limit-turn-speed value="5.5"/>
        <rectangular-lane-cut value="false"/>
    </junctions>

    <pedestrian>
        <walkingareas value="false"/>
    </pedestrian>

    <report>
        <aggregate-warnings value="5"/>
    </report>

</configuration>
-->

<net version="1.9" junctionCornerDetail="5" limitTurnSpeed="5.50" xmlns:xsi="http://www.w3.org/2001/XMLSchema-instance" xsi:noNamespaceSchemaLocation="http://sumo.dlr.de/xsd/net_file.xsd">

    <location netOffset="0.00,0.00" convBoundary="0.00,-1225.00,22475.00,0.00" origBoundary="-10000000000.00,-10000000000.00,10000000000.00,10000000000.00" projParameter="!"/>

    <edge id="E" from="start" to="end" priority="-1" spreadType="center" length="20000.00">
        <lane id="E_0" index="0" allow="rail_urban rail rail_electric rail_fast" speed="25.00" length="20000.00" shape="2475.00,-1225.00 22475.00,-1225.00"/>
    </edge>

    <junction id="O" type="dead_end" x="0.00" y="0.00" incLanes="" intLanes="" shape="0.00,0.00"/>
    <junction id="end" type="dead_end" x="22475.00" y="-1225.00" incLanes="E_0" intLanes="" shape="22475.00,-1226.60 22475.00,-1223.40" radius="100.00" name="End"/>
    <junction id="start" type="dead_end" x="2475.00" y="-1225.00" incLanes="" intLanes="" shape="2475.00,-1223.40 2475.00,-1226.60" radius="100.00" name="Start"/>

</net>
